/*--------------------------------*- C++ -*----------------------------------*\
| =========                 |                                                 |
| \\      /  F ield         | OpenFOAM: The Open Source CFD Toolbox           |
|  \\    /   O peration     | Version:  2406                                  |
|   \\  /    A nd           | Website:  www.openfoam.com                      |
|    \\/     M anipulation  |                                                 |
\*---------------------------------------------------------------------------*/
FoamFile
{
    version     2.0;
    format      ascii;
    arch        "LSB;label=32;scalar=64";
    class       scalarField;
    location    "0";
    object      error_velocity_mag_all;
}
// * * * * * * * * * * * * * * * * * * * * * * * * * * * * * * * * * * * * * //


16384
(
1.46852710276e-14
4.51498235674e-14
8.86925706275e-14
1.26843012496e-13
1.84061595699e-13
2.4029137001e-13
8.46187582975e-14
5.66352915755e-14
4.08329398554e-13
1.21756381273e-13
4.95755659104e-13
4.43541408921e-13
4.85675783161e-13
2.677811219e-14
1.31100934736e-13
2.96749099248e-14
1.71501461727e-13
1.13037089721e-13
1.63406321943e-13
2.38783039956e-14
1.93834897401e-13
3.89732614747e-13
2.37066019431e-13
2.01117934244e-13
2.65248177102e-13
1.87539112686e-13
4.78174600755e-13
3.77368519042e-13
2.50133443429e-13
2.7156183372e-13
3.414013556e-13
4.68958213663e-13
2.65898424891e-13
2.62234679209e-13
2.83353875566e-13
9.64902931658e-14
4.54430235222e-14
4.63636432167e-13
3.45612755605e-13
4.14150485386e-14
4.21774202321e-13
4.0704293491e-13
3.66308415104e-13
4.83069991504e-13
4.63934678486e-13
3.98991382599e-13
1.95543049919e-13
3.84122227694e-13
2.20346083793e-13
1.95930794054e-13
2.03914785291e-13
3.20715508265e-13
3.59412602563e-14
5.08745014112e-14
4.05603833924e-13
2.87493185489e-13
3.68705280527e-13
3.68348138312e-13
2.05017263483e-13
4.0899109906e-14
1.27346898944e-13
2.5340770806e-13
1.31190726594e-14
4.12925947565e-14
4.39717614986e-14
3.86966406254e-14
4.34960644831e-13
2.3429842608e-13
1.5847133097e-13
2.35838723025e-13
1.63809532767e-13
1.37363361803e-13
4.16644206907e-13
5.77285852049e-14
1.71667823764e-13
2.95477919839e-13
1.07399003363e-13
2.63017071077e-13
2.53657327938e-13
3.76381939091e-13
4.9715806877e-14
4.58557435277e-13
1.47330019113e-13
1.6892736183e-13
4.34007712743e-13
1.50935384279e-13
1.25321884274e-13
1.75970441885e-13
4.28325495277e-13
2.93482251051e-14
4.20026826338e-13
2.90438656894e-13
4.03011975251e-13
2.5991185131e-13
5.52617425857e-14
3.28181952561e-13
6.30606845544e-14
1.34024540486e-13
2.95004801608e-13
4.43209340967e-13
2.86665735526e-13
4.05247328975e-13
4.96384489531e-13
3.47723117775e-13
4.49163124855e-14
4.57422308315e-14
1.2046120669e-13
4.93615843636e-13
2.30816949285e-13
1.72330097941e-13
4.42495762892e-13
2.81680366729e-13
2.11210891557e-13
1.74640481614e-13
4.39059993253e-13
8.18223624885e-14
1.92569206782e-13
1.50579847097e-13
4.17224104662e-13
2.26292224613e-13
1.25407541564e-13
1.38886045372e-13
3.11920824099e-13
4.06149806694e-13
4.34382311072e-13
1.6365229681e-13
5.15550637887e-14
2.60298568033e-14
4.51465203732e-14
9.97008711264e-15
4.25576505428e-13
1.75275487027e-13
7.65125083451e-14
1.34615292136e-13
2.97624714615e-14
1.6152703008e-13
1.13202986601e-13
4.10797896913e-14
6.75393765473e-14
4.67297426134e-13
6.21965110457e-14
3.91787386378e-13
1.64628514073e-13
3.22750450071e-13
1.00148648746e-13
2.21905186967e-13
4.52256861327e-14
4.77708537596e-14
4.3543069771e-13
2.29725768492e-13
2.72873781381e-13
3.17773939944e-13
4.32149373582e-13
3.53683610885e-13
4.283826862e-13
1.37824387329e-13
2.66604158392e-13
4.1102440361e-13
4.90830461907e-13
2.30267670247e-13
3.25779169993e-14
9.67551704982e-14
4.49089150397e-13
4.2551254248e-13
2.46308980173e-13
3.11424263014e-13
2.63182460985e-13
2.0506102259e-13
2.71225554914e-14
4.6467840014e-13
3.63740849452e-13
3.89013339453e-13
4.71521783687e-13
3.29942500249e-13
4.49151844253e-13
4.97484602515e-13
2.85625774726e-13
3.23299465829e-13
4.40177965499e-14
3.65345310505e-14
2.99155697887e-13
2.87771843866e-13
3.1540865699e-13
2.55619659669e-14
5.99902978398e-14
3.21067981248e-13
4.61129152761e-14
7.39708182327e-14
3.82147370054e-13
1.23375236712e-13
1.63164663455e-14
3.99730690547e-14
5.12093605663e-14
1.53334483635e-14
1.26682859799e-13
1.57824250875e-13
3.23798353605e-13
3.43680132064e-13
2.58263694097e-13
1.51714104558e-13
2.85242316717e-13
3.40825942157e-13
4.55151632798e-13
3.91204535977e-13
3.93592727314e-13
1.70932762004e-13
2.94316013156e-13
1.86676738617e-13
4.38391976859e-13
4.32912247494e-13
4.86649690779e-13
3.43840623505e-13
2.12148173165e-13
8.5376624596e-14
1.24237131316e-14
3.95401331764e-13
3.42666477187e-13
4.42157113056e-13
4.58286379158e-13
4.84099948164e-13
5.69788812177e-14
3.72923921432e-13
7.86140322054e-14
4.28125944425e-13
1.65044687934e-13
3.15446384283e-13
4.87170392598e-13
1.15807025456e-13
3.78698900104e-13
1.98638827669e-13
1.70914887522e-13
4.56623930635e-14
2.66109569559e-13
2.01831380831e-13
4.98984820417e-13
4.80102879333e-13
3.47217702646e-14
2.35530262716e-13
5.77717821754e-14
2.45479255274e-13
1.49995290824e-13
1.32517559885e-13
3.80145507541e-13
2.50911096782e-13
3.60415876047e-13
2.08947844526e-13
3.07280028715e-13
1.15821693248e-13
4.9879028081e-13
3.4957731565e-13
2.66577105335e-13
4.4774264598e-13
1.49591010258e-13
2.44349994826e-13
3.29617122483e-14
5.86844722072e-14
8.86925706275e-14
4.25604373436e-13
4.70321195999e-13
5.15641479413e-13
2.42363743221e-13
3.21031816286e-13
2.4080903158e-13
5.80763769341e-13
2.47622214069e-13
4.38700368287e-13
3.59524562115e-13
4.32279340738e-13
3.39400980567e-13
2.02907792361e-13
1.98475050656e-13
2.22783631894e-13
3.75211139134e-13
2.42606388804e-13
2.92680143059e-14
4.88285151831e-13
3.1949680023e-13
4.95566459263e-13
4.19755800514e-13
4.56745666364e-13
5.01570207504e-13
3.80953954783e-13
3.65669571819e-13
4.59954533452e-13
1.30868914704e-13
7.16136256431e-14
4.0481720988e-13
1.59808120914e-13
2.7296822877e-14
1.50911401249e-13
1.57384605103e-13
1.08926145846e-13
7.37702891568e-14
4.04122433453e-13
3.32780245366e-13
4.27348833781e-13
3.43700555228e-13
3.52403855522e-13
4.21945406451e-13
2.66686392096e-13
3.42168525282e-13
3.40729447486e-13
2.81176755659e-13
2.66060338652e-13
4.75278948099e-13
6.19945634761e-14
4.99777106813e-13
2.21957255259e-13
2.9989970736e-13
2.11759960002e-13
4.32489175639e-13
5.94079015362e-13
4.11303236478e-13
3.78550594482e-13
3.1037834603e-13
2.79461868926e-13
5.25627310985e-13
3.67753391856e-13
3.70645878319e-13
1.84429572216e-13
3.62061253414e-13
2.49131951752e-13
5.50774450763e-13
3.14240544817e-13
3.21425419232e-13
2.17475675577e-13
5.19292498413e-13
6.11574659482e-13
5.0019863377e-13
4.55833331287e-13
1.63664406073e-13
3.41514776241e-13
5.08631194509e-13
1.5965995301e-14
8.40682812759e-14
3.83688307795e-14
2.55121889324e-13
3.01399685764e-13
3.16636971833e-13
3.0336171201e-14
9.67182689448e-14
4.3396573416e-13
4.88475479207e-13
4.30660377808e-13
4.26547970572e-13
4.23631913104e-13
1.34702186486e-13
2.81624470088e-14
3.65086751801e-13
4.61080908776e-14
3.91947794264e-14
3.47084356912e-13
2.1416301471e-13
2.93101329655e-13
2.43730516906e-13
3.45530234362e-13
4.05802250217e-13
1.7463076391e-13
2.88560484564e-13
3.55911285695e-13
2.29263810385e-13
2.86305693297e-13
3.49904690862e-13
6.71753412143e-14
5.38150478581e-14
1.67788591589e-13
8.47489686213e-14
5.65941444547e-14
2.08174200432e-13
4.75272641806e-13
2.46604551607e-13
4.7499898114e-13
4.49936244452e-13
5.11721878353e-13
6.51532537608e-13
1.2622552562e-13
3.70540298388e-13
3.80092299279e-13
4.13580888007e-13
5.88676970168e-13
5.50497753768e-13
3.71048834968e-13
1.82598781258e-13
4.50761535425e-13
1.26843190286e-13
1.75275487027e-13
5.15625636719e-13
4.34974489965e-13
5.81155551909e-13
2.76363396752e-13
4.53018016218e-13
3.15160601246e-13
2.37143858961e-13
2.92783479321e-13
4.06174791043e-13
4.75860686119e-13
4.3882615306e-13
2.07817173302e-13
5.26709063665e-13
2.92908649351e-13
4.52350081923e-13
4.92210743638e-13
4.39776106465e-13
2.54613336892e-13
2.12430648853e-13
1.50755719056e-13
3.25746511412e-13
3.02331320005e-13
2.59430630429e-13
6.52380737972e-14
1.43099555983e-13
4.0809052188e-13
1.19257052656e-13
2.26223914633e-13
1.75878288468e-13
2.49736515956e-13
7.85076447099e-14
3.22647857407e-13
3.92608531716e-13
2.47066125383e-13
2.72671594532e-14
4.6290608558e-13
1.85258182313e-13
1.10109700774e-13
1.59256029226e-13
4.52789395236e-13
4.5916182565e-13
3.85181442412e-13
5.09739363972e-14
3.98744471282e-13
4.05980887074e-13
3.26516649347e-13
3.14179238181e-13
3.76995523794e-13
3.41450838634e-13
5.09226673783e-13
4.1989392522e-13
3.99634575323e-13
1.24038624026e-13
4.90263919732e-13
4.70115166325e-13
3.97191834591e-13
1.85573911408e-13
5.16649045917e-13
4.93770486523e-13
5.00748826567e-13
2.83318866613e-13
2.48216438425e-13
4.94725566546e-13
3.7961970047e-14
3.65581418932e-13
4.37663889805e-13
8.53323088076e-14
5.32369181624e-13
5.34388542508e-14
5.26054060633e-13
1.54771152335e-13
3.0149054743e-13
5.06726443542e-13
3.88334181077e-13
9.36139896363e-14
6.35165428757e-13
3.49671192437e-13
2.69372593412e-13
4.19754315937e-13
4.69523326021e-13
2.43738697365e-13
1.63970866367e-13
2.80224915474e-13
2.45938160602e-13
1.02968458187e-13
4.51150933206e-13
4.17925742052e-13
3.13643362173e-13
2.70329026194e-13
2.13483370287e-13
1.06154741583e-14
5.73156080698e-14
3.40993862171e-13
4.2088863725e-13
9.26109777409e-14
1.88847343036e-13
4.3815787614e-13
3.69622265089e-13
3.62199554527e-13
7.27345520147e-14
4.33994635578e-13
6.6628184252e-14
2.90541356496e-14
2.32746720688e-13
7.7593952033e-14
2.8419560596e-13
3.35109468372e-14
2.46244602753e-13
4.23344257256e-13
4.34838304055e-13
6.0552569872e-13
3.9293278922e-13
3.79138246125e-13
4.30953342439e-13
2.09109675935e-13
3.01073253308e-13
9.00601154226e-14
4.35053078699e-13
3.67158040325e-13
4.27864919756e-13
2.05855296183e-13
5.24308112928e-14
5.84688877868e-13
5.64790474568e-13
4.13139449491e-13
3.77236836666e-13
1.84061595699e-13
7.65390080229e-14
2.4238168682e-13
5.81198398589e-13
4.41392244193e-13
1.36020289649e-13
3.107219831e-13
4.64433856851e-13
2.690036997e-13
2.97148724447e-13
4.59837302314e-13
4.56147199315e-13
5.24696546119e-13
4.00551127367e-13
2.24996771064e-13
5.10787072916e-13
3.44806541757e-13
2.60027979428e-13
2.83767146609e-13
3.93482118486e-13
3.61382052274e-13
5.18532929178e-13
4.95396206229e-13
3.06772979527e-13
2.19133445797e-13
3.45088738625e-13
4.04964351139e-13
3.36895544423e-13
4.11039300063e-13
2.60627159949e-13
1.57365986986e-13
1.61465632149e-13
3.11532094924e-13
2.88581489056e-13
3.71486283428e-14
3.88097130155e-13
1.44647968622e-13
2.30076639738e-13
1.7419781411e-13
3.14983611809e-13
1.92533648076e-13
1.18543157707e-13
5.11534195359e-13
3.91590821247e-13
3.74200659127e-13
5.40330776319e-13
4.01705263591e-13
4.72679604072e-13
3.77880842496e-13
4.70275523903e-13
4.52844987977e-13
2.30094600723e-13
3.88402089067e-13
2.50305931804e-13
4.6263048804e-13
3.33621044451e-13
2.28944747084e-13
4.59724338753e-13
1.94795956008e-13
4.22060910268e-13
6.32357676778e-13
3.00630464681e-13
3.48540175253e-13
3.3846572762e-13
3.02344876118e-13
4.55860982719e-13
4.06603171607e-13
1.84578511581e-13
2.28609642277e-13
3.91503212778e-13
3.12898731717e-13
4.57071042622e-13
3.91425380401e-13
1.29448210838e-13
4.77940500488e-13
3.26645398109e-13
2.37553127555e-13
5.34612000713e-13
2.13576007264e-13
4.38549668474e-13
5.14472684479e-13
5.2567973722e-13
3.5526304111e-13
5.69444915705e-13
4.37632192241e-13
3.79325190949e-13
1.04338849784e-13
1.97340424975e-13
2.52490555297e-13
1.46188688567e-13
4.01708054154e-14
4.7019843138e-13
4.33277595264e-13
4.67682591993e-13
3.97805529373e-13
1.22068231157e-14
4.61631336299e-13
2.71239452881e-13
2.9372224429e-13
3.65572218293e-13
7.12102072563e-14
1.41220382541e-13
3.08588582028e-13
1.563341069e-13
3.17420881373e-13
2.75240611495e-13
5.50585701925e-13
4.54766869495e-14
3.23886865442e-13
4.917158255e-13
5.29036870045e-13
4.87221340362e-13
2.71600361022e-13
4.46188775044e-13
3.27999158805e-13
3.3219509248e-13
2.22396019479e-13
5.84273582633e-13
4.58952838213e-13
3.46422480707e-13
4.42237299873e-13
4.38740143906e-13
6.25950918899e-13
4.64694110538e-13
1.73229540649e-13
4.72654648974e-13
2.05221318095e-13
1.50315098649e-13
2.4029137001e-13
1.34615292136e-13
3.20989055131e-13
2.76390339728e-13
1.36020289649e-13
4.05790395947e-13
1.69969969148e-13
4.05947947938e-13
1.92372973542e-13
4.46510704767e-13
4.98768049059e-13
5.71831987203e-13
4.19428861906e-13
5.31895147021e-13
3.79293869098e-13
2.89572987939e-13
2.01210863339e-13
4.43401907908e-13
4.92707041288e-13
5.0046338153e-13
4.61338012423e-13
4.90403419285e-13
4.10420971157e-13
3.42373723055e-13
3.03181179562e-13
2.73187371868e-13
4.86040577413e-13
4.2591647343e-13
2.90305314499e-13
3.79247928615e-13
1.52744400574e-13
3.08093631947e-13
4.31876836543e-13
4.81321167636e-13
5.18160247112e-14
4.9517106349e-13
3.87993058333e-13
4.04366111649e-13
1.250315278e-13
4.49640991663e-13
2.21669019751e-13
5.12711102001e-13
5.78568706618e-13
1.99048330185e-13
6.03054935937e-13
1.78677420753e-13
5.1072940794e-13
2.22347108113e-13
3.56032998235e-13
3.68439638166e-13
1.09230547104e-13
4.28709448445e-13
1.85369247658e-13
4.31946625946e-13
3.02691577829e-13
3.01424677114e-13
3.56896177192e-13
5.42989696985e-13
2.37657527477e-13
2.92031822495e-13
2.71430918741e-13
5.88189284998e-13
3.95359922424e-13
1.82685305605e-13
3.5498105849e-13
8.22796811669e-14
4.83253046797e-13
5.21817084079e-13
5.24581439427e-13
5.08134418097e-13
3.46053943342e-13
2.28083156334e-13
6.27499303304e-13
5.01447414826e-13
3.97595989476e-13
4.87803931909e-13
3.73107424151e-13
6.35136634005e-13
5.29309675859e-13
4.73573956777e-13
4.93664687807e-13
4.58146368684e-13
3.89806980923e-13
2.6112620191e-13
5.60993250688e-13
4.19212210221e-13
2.40410548395e-13
4.66135197282e-13
1.63412574924e-13
4.18091426449e-13
4.34114235637e-13
4.66205587841e-13
8.55802298692e-14
2.15281824605e-13
2.15450267204e-13
1.84227941315e-13
4.44204153852e-13
1.1688738208e-13
4.34707697696e-13
3.00445510021e-13
3.50184653153e-13
3.23659947515e-13
5.05811859812e-14
4.06519682487e-13
1.14489111763e-13
4.86442520532e-13
2.18005238862e-13
5.78180611401e-13
3.73983368817e-13
2.09619574309e-13
2.76196536247e-13
4.80681610579e-13
5.38115262808e-13
4.64528021068e-13
2.76783854956e-13
1.82094117056e-13
2.19935293265e-13
3.40988916684e-13
4.76331174479e-13
3.56842831551e-13
4.93488871318e-13
3.85122789254e-13
5.81582744117e-13
3.24783123724e-13
4.62635530236e-13
5.76177504849e-13
3.6827565623e-13
4.1114968793e-13
8.46203073203e-14
2.97076601412e-14
2.40756583035e-13
4.53015248593e-13
3.10769646402e-13
1.69969969148e-13
3.08366158885e-13
6.11918296947e-13
3.307955101e-13
4.86170912319e-13
6.28262911034e-13
5.78697798417e-13
5.78318660947e-13
3.99196602966e-13
5.37211741545e-13
3.33844064659e-13
5.13278954996e-13
4.64338035204e-13
3.94574262589e-13
2.95243456521e-13
4.34065109501e-13
4.35051230913e-13
4.79785179403e-13
4.95546268592e-13
3.0713964439e-13
9.81623991606e-14
1.16684440713e-13
2.50066837144e-13
3.05632844875e-13
4.90084275626e-13
2.51889800597e-13
3.28306832165e-13
4.20803969081e-13
3.24819881362e-14
5.49446598937e-14
1.21257112799e-13
4.33357265687e-13
1.50245897425e-13
1.62851487315e-13
4.42457964255e-13
4.74236313443e-13
6.306394176e-13
3.93919740394e-13
4.08216355734e-13
4.9404973324e-13
3.57020547429e-13
2.79120668357e-13
3.2018194916e-14
3.28153503787e-13
2.48358083277e-13
4.9226827021e-13
4.28733863888e-13
4.89287873475e-13
4.14319889593e-13
2.66740300633e-13
2.45456583214e-13
3.87866853136e-13
3.33399900354e-13
3.80792198606e-13
1.89406472124e-13
1.98097034318e-13
5.34084785763e-13
6.82690022824e-14
3.89028917242e-13
2.29594505288e-13
8.85969147113e-14
4.33583408217e-13
2.46094306812e-13
5.2745672363e-13
5.31630825703e-13
5.07413225971e-13
4.73015444675e-13
2.14012277481e-13
5.37859343636e-13
4.87790194473e-13
3.73267300329e-13
4.7032466193e-13
3.45931920385e-13
4.80867430206e-13
1.99200482247e-13
4.27074445831e-13
3.71379027726e-13
5.75412337973e-13
5.19685739467e-13
4.85476920305e-13
3.43181165569e-13
3.39859796007e-13
7.83359905235e-14
4.51753435579e-13
3.56263411242e-13
3.79097237319e-13
8.65746825205e-14
2.73835178439e-13
7.49282326955e-14
4.79960135679e-13
2.35924038572e-13
4.86841063301e-13
2.95069381285e-13
3.85971792457e-13
4.56982488956e-13
1.13944751302e-13
4.02859398e-13
4.1217941718e-13
4.05782186975e-13
3.49397417647e-13
2.85717011648e-13
4.62771908456e-13
4.46962195239e-13
4.50800253203e-13
2.35735842326e-13
2.99318692193e-13
4.53441873834e-13
3.85190274415e-13
5.75577500223e-13
3.6130649317e-13
5.48343268259e-13
4.49387496543e-13
3.67125410774e-13
4.17145677289e-13
5.0387973448e-13
8.43828842431e-14
3.52626757345e-13
1.74110387354e-13
3.0465806903e-13
3.61768775848e-13
3.51091571986e-13
1.45919627793e-13
3.03436773952e-13
2.87991291699e-13
7.43107850929e-14
5.80657491926e-13
3.15160601246e-13
4.64362128507e-13
4.05947947938e-13
6.11953795671e-13
8.45494789001e-14
4.10263837522e-13
6.34542210253e-13
4.52098990186e-13
6.24995101591e-13
5.64066191163e-13
5.22972520821e-13
3.75342830938e-13
3.24567909885e-13
4.71936272035e-13
3.47145171308e-13
2.44955660714e-13
4.54486430542e-13
3.29728464091e-13
6.06009611595e-13
1.88957596209e-13
7.1620190659e-14
4.47574485376e-13
2.6803007711e-13
2.52942507649e-13
1.71356872723e-13
4.61829454017e-13
4.18615096e-13
4.08599309953e-13
2.30151232265e-13
1.74101952479e-13
2.43491919127e-13
1.6471725009e-13
2.21233713132e-13
4.25138551005e-13
8.59367944407e-14
1.61129696901e-13
6.60793040016e-13
4.97495676541e-13
1.94711867492e-13
4.3215652725e-13
4.878818656e-13
5.32338537003e-13
3.00550722214e-13
4.22400819809e-13
2.15558500924e-13
4.96058742054e-13
5.14879737941e-13
4.78441592379e-13
4.10118879834e-13
2.62094723356e-13
1.47604662602e-13
5.30542759554e-13
5.23291233048e-13
4.12478458358e-13
1.93675670049e-13
1.12955099368e-13
1.03758468266e-13
4.487863805e-13
5.96253509642e-13
2.69935610272e-13
4.95052361865e-13
8.31940289908e-14
4.89359297708e-13
5.25747421999e-13
4.70727770786e-13
4.79942928854e-13
5.34564131676e-13
3.59943349431e-13
3.73629654089e-13
6.31383477826e-13
2.20715862561e-13
1.10030117432e-13
3.49901410095e-13
4.72116453935e-13
3.79115478989e-13
4.27347531344e-13
2.96831808448e-13
4.48512693403e-13
4.97562278481e-13
3.96727080124e-13
3.95772708068e-14
2.16049514695e-13
4.60126773352e-13
5.39935416149e-13
4.28835970512e-13
2.7425590303e-13
6.49611686054e-13
3.86179593914e-13
1.35893863426e-13
1.42616493558e-13
3.27981148765e-13
4.31676792115e-13
2.86250730786e-13
1.18416484415e-13
8.04958188829e-14
1.02697888644e-13
1.073862075e-13
1.24419550281e-13
4.37668029095e-13
5.74896842485e-13
5.39660404562e-13
1.77120732976e-13
4.92755592589e-13
2.03247090999e-13
4.32055989903e-13
3.77905843841e-13
4.71041391487e-13
1.76877485712e-13
4.58548688732e-13
4.79859997335e-13
4.88259324049e-13
5.13057640265e-13
3.83874762641e-13
4.53023117788e-13
3.31963632467e-13
4.27635041829e-13
2.20605673148e-13
6.45662064768e-13
2.7989969277e-13
5.12283871148e-13
1.92764039266e-13
3.01308760904e-13
4.57857913875e-13
2.4340008962e-13
4.14456722333e-13
1.83069141277e-13
3.2778446688e-13
2.47622214069e-13
2.37143858961e-13
2.690036997e-13
1.92444650088e-13
3.307955101e-13
5.47734861158e-13
4.79998809893e-13
4.49953004459e-13
4.95510971891e-13
1.51383784621e-13
4.39573472957e-13
2.65977815938e-13
4.31597626517e-13
4.6877887713e-13
2.54103257337e-13
4.66939584251e-13
4.7358971048e-13
2.90726627047e-13
5.82626820509e-13
2.62875165203e-13
4.18683422816e-13
7.31270667979e-14
4.87394989698e-13
4.56630783125e-13
5.99500006902e-13
2.42814938333e-13
4.43111436422e-13
3.47735695869e-13
2.91359606143e-13
2.02727864784e-13
2.17171622787e-13
2.51225004916e-13
2.97735258909e-13
4.11088410441e-13
2.16102794238e-13
5.70557223308e-13
4.80665981128e-13
5.79124405842e-13
3.03557756441e-13
2.77171602945e-13
5.43547420862e-13
6.31913208282e-13
4.91639712378e-13
5.80389143195e-13
2.61237836849e-13
2.65908780527e-13
1.5930183929e-13
3.55878578986e-13
8.03424917882e-14
4.10063139824e-13
5.1665020524e-13
3.71627991349e-13
4.6036346878e-13
4.67590069171e-13
4.72707635755e-13
3.99495864485e-13
4.27939786214e-13
3.77408164011e-13
5.00032529702e-13
1.75348968268e-13
3.08092023135e-13
6.68096942001e-14
2.80805516497e-13
5.24105602684e-14
2.78185738089e-13
5.60116060532e-13
5.06344435735e-13
5.62828918082e-13
2.35757610743e-13
2.69076224173e-13
1.4725787017e-13
4.69080336572e-13
5.1488844286e-13
4.64866302969e-13
5.97008784522e-13
5.56236150322e-13
5.17443678916e-13
5.56333865424e-13
3.51749882218e-13
2.84795410264e-13
5.43816612924e-13
4.01735229302e-13
3.51694297139e-13
4.03977943671e-13
4.29698344365e-13
4.49223079014e-13
5.81484934427e-13
6.1432689033e-14
6.05120177927e-13
1.87754421236e-13
4.79660949445e-13
3.9652220421e-13
3.30827565411e-13
1.87995989769e-13
2.31865122309e-13
2.11640116172e-13
2.48112170153e-13
3.74584198547e-13
2.70855718114e-13
4.74124276891e-13
4.65400705684e-13
4.12773493558e-13
6.80026670295e-13
3.26165339644e-13
2.54541600621e-13
4.72223519931e-13
4.34296302337e-13
3.47115063718e-13
4.25386961116e-13
5.33585763856e-13
3.9950916995e-13
9.81282193837e-14
5.5021741348e-13
2.96238814764e-13
2.22697324063e-13
2.91503136065e-13
3.76098291362e-13
5.39095461281e-13
2.55556706879e-13
4.40601658897e-13
5.40001899543e-13
3.39037908795e-13
4.07250282032e-13
5.84943625082e-13
1.06678316571e-13
7.53675352857e-14
1.21756381273e-13
4.10926522803e-14
4.38710212493e-13
2.92791813529e-13
2.97134034713e-13
4.46510704767e-13
4.86101782111e-13
5.52773881286e-13
2.60200875548e-13
1.98695200646e-13
3.85050010437e-13
1.7871764921e-13
4.51300091291e-13
3.01493179285e-13
5.58826610017e-13
1.70499073884e-13
4.52266284196e-13
2.26427257249e-13
4.52452419657e-13
5.67552406097e-13
4.07873381552e-13
5.7376128272e-13
5.43624890852e-13
4.24420686021e-13
3.98938094126e-13
4.59852869908e-13
2.44557755607e-13
6.02407402563e-14
1.03723378001e-13
3.59606952805e-13
2.2189138042e-13
1.14170285543e-13
9.05614025502e-14
1.18796590524e-13
4.60835389574e-13
3.83023649267e-13
4.86277985986e-13
3.81928923854e-13
4.49474762467e-13
2.87398874841e-13
2.93090341435e-13
4.56896905477e-13
4.75580514109e-13
6.43129516099e-13
5.03243122276e-13
3.94010956353e-13
4.45486437532e-13
4.45301265503e-13
3.10173742228e-13
4.09403832768e-13
4.11636503158e-13
2.17892045258e-13
5.09112133829e-13
5.31026949545e-13
3.1509663391e-13
5.07828032265e-13
6.73657500963e-13
4.60828773359e-13
3.91648250783e-13
4.98123315001e-13
1.68504437878e-13
1.79620132005e-13
6.92710789755e-14
1.12380845477e-13
1.22361729232e-13
8.12599878749e-15
3.42463627413e-13
2.21385152392e-13
3.83096620749e-13
4.6136130728e-13
2.99359492384e-13
4.80024876712e-13
2.43965592189e-13
3.04344132832e-13
8.99489649131e-14
4.59256828225e-13
3.75661756834e-13
2.50418721817e-13
4.04698134649e-13
2.24922526417e-13
1.84037784937e-13
4.37318403117e-13
4.76099455593e-13
2.48997142211e-13
4.90218935665e-13
2.99139814479e-13
6.30431375695e-13
1.47072466008e-13
7.02977195557e-13
5.19652746561e-13
2.47111891443e-13
3.67947753146e-13
1.95283513973e-13
1.77431791126e-13
3.19263962238e-13
1.52180221301e-13
5.57847913159e-14
4.15060859226e-14
2.79654939493e-13
3.30573785785e-13
8.70306877987e-14
8.7819940636e-14
5.33808796846e-13
5.04864505743e-13
5.32027471651e-13
3.70011918729e-13
5.88959617773e-13
5.03326036618e-13
4.645924843e-13
6.78266894267e-13
2.93537976074e-13
4.46574511876e-13
4.53131104537e-13
4.16042183794e-13
3.2649517252e-13
5.00986356121e-13
1.39911636292e-13
4.18468588797e-13
6.01034694963e-13
2.75353663989e-13
2.90851247667e-13
5.10951667049e-13
1.79033376996e-13
2.088468965e-13
2.20641207407e-13
4.9662673828e-13
1.01211215505e-13
9.71755882473e-14
4.95700489127e-13
6.74826593219e-14
3.59518803691e-13
4.06174791043e-13
4.59837302314e-13
4.98768049059e-13
6.28302886127e-13
4.52123591718e-13
4.95555210521e-13
3.85139071581e-13
5.45371615524e-13
3.50966052261e-13
2.96902781822e-13
4.60171081354e-13
1.00784114457e-13
3.98481504891e-13
2.49343041173e-13
4.56053078333e-13
2.00045861562e-13
4.4332463497e-13
5.83816644223e-13
1.02487792757e-13
3.64303153608e-13
4.11205777062e-13
4.52853365373e-13
5.58616319783e-13
1.44943060024e-13
3.96318971096e-13
2.60979784221e-13
1.82667116896e-13
2.45730372189e-13
1.94758436023e-13
2.75074655132e-13
4.96952583682e-13
2.54555151541e-13
9.85939862988e-14
4.11824105192e-13
4.34300246452e-13
4.82872650566e-13
5.09232374084e-13
4.44747307397e-13
4.591490775e-13
5.91630464913e-13
4.01702440647e-13
6.39441786782e-13
3.9238906869e-13
5.32099736067e-13
5.56291590793e-13
4.02359053966e-13
3.61708978876e-13
3.31608006319e-13
2.01966298651e-13
4.65589630822e-13
5.17500426017e-13
1.97232807681e-13
1.86609072084e-13
2.54296153612e-13
3.76431705301e-13
5.88711242708e-13
4.28816978279e-13
1.46310422854e-13
3.29002245467e-13
2.68927552375e-13
4.25203935825e-13
4.04029338022e-13
2.47871222036e-13
4.86143264743e-13
2.66399287151e-13
3.46134285091e-13
2.9470804969e-13
3.3764773527e-13
3.46333022632e-13
2.58378744979e-13
4.09579691817e-13
2.28400319748e-13
6.33546230066e-13
2.65219058887e-13
6.32899695836e-13
5.14272334376e-13
3.07279755131e-13
3.41742877925e-13
4.91781058628e-13
3.78023815479e-13
4.87730290722e-13
3.87766530311e-13
6.17674373246e-13
2.3258552991e-13
2.26129789862e-13
4.58281873141e-13
4.40091426693e-13
3.77669496282e-13
4.898316883e-13
3.84716621465e-13
3.8396908844e-13
3.40154523073e-14
1.0973909774e-13
3.57967351708e-13
2.5555869191e-13
3.11446807456e-13
4.54300918183e-13
4.89357256497e-13
3.0624196709e-13
6.07936241737e-13
5.33676323494e-13
4.24195472252e-13
5.36840506303e-13
1.28512091721e-13
6.16302643581e-13
5.74228610044e-13
4.56474785228e-13
5.64236304868e-13
5.59331946466e-13
4.86738085821e-13
4.03743727116e-13
3.9189570673e-13
3.31199197553e-13
6.59195956299e-13
4.60948853347e-13
1.81137173518e-13
5.14654301404e-13
2.94456022532e-13
2.30971487529e-13
4.91458480686e-13
5.28228271946e-13
4.42154944087e-13
4.70190702329e-13
4.76280715178e-13
3.38793087638e-13
4.43652449322e-13
4.67296562695e-13
4.32279340738e-13
4.75877450367e-13
4.56032766752e-13
5.71831987203e-13
5.78497961649e-13
6.24995101591e-13
1.51464258933e-13
1.78698845587e-13
3.51056071011e-13
4.20156741944e-13
1.58332614676e-13
8.59146394268e-14
4.51786476128e-13
2.08141006533e-13
4.02822914009e-13
2.2566115286e-13
4.36873483175e-13
1.31053586943e-13
4.41470748815e-13
4.22038063751e-13
2.03079062887e-13
2.52944770169e-13
3.3172130511e-13
2.70737599117e-13
2.65022097529e-13
1.36279604935e-13
4.76353044971e-13
2.31714877602e-13
3.13940352819e-13
2.82160182875e-13
1.44573455247e-13
2.6732238259e-13
5.56866516012e-14
4.44170684289e-13
4.67815798315e-13
3.14373819739e-13
4.57422883823e-13
2.28025762126e-13
1.71969926963e-13
2.60591459002e-13
6.76465958727e-14
7.07012634145e-13
4.7975948494e-13
5.12416145525e-13
3.35331924826e-13
2.71971128359e-13
3.70010934974e-13
3.60049199637e-13
3.68253145042e-13
1.8810362941e-13
4.62114863967e-13
9.10261187554e-14
2.10121439955e-13
1.45680743434e-13
4.57907341153e-13
4.98599309366e-13
4.54287267346e-13
6.10889818122e-13
3.99062520689e-13
3.30667427855e-13
3.94541095797e-14
3.85874024206e-13
2.5968311748e-13
7.47609377532e-14
6.39218667969e-13
3.64908999025e-13
5.48610268585e-13
2.8772976869e-13
3.55580326567e-13
3.6671754694e-13
1.91069680898e-13
3.17358858563e-13
3.49653298137e-13
5.19441029042e-13
2.06605502484e-13
6.76077674157e-13
4.09770745093e-13
4.50800836792e-13
6.20872969784e-13
1.57672660697e-13
3.81489146117e-13
4.79939824518e-13
4.63334284558e-13
3.95374319631e-13
2.33817899634e-13
4.94754097317e-13
3.92596541028e-13
1.7602303552e-13
5.74676774809e-13
3.70681056633e-13
4.95798960715e-13
4.83396625407e-13
1.08793023126e-13
4.21475878738e-13
4.09462725555e-14
1.51892870172e-13
3.4277970138e-13
4.14441916867e-13
4.57366476452e-13
4.37488045737e-13
4.90453641349e-13
4.91482128537e-13
3.75596587934e-13
3.66704439245e-13
4.6942672801e-13
1.21917704692e-13
3.47149288942e-13
5.88426938137e-13
2.50304902304e-13
4.69369365093e-13
4.4040787353e-13
4.78392360529e-13
2.20141352885e-13
2.57124932059e-13
6.45223077187e-13
3.20677619657e-13
4.89353480637e-13
5.30466678555e-13
3.23701606479e-13
5.71927210139e-13
4.37939993382e-13
4.45324367347e-13
3.1857992846e-13
4.69439593987e-13
4.54492834829e-13
2.04441663573e-13
4.85675941866e-13
6.21965110457e-14
3.39401143993e-13
4.3882615306e-13
5.24776775482e-13
4.19452132461e-13
5.78273940987e-13
5.64119133245e-13
4.39771322227e-13
4.51307858101e-13
2.96751005301e-13
1.58360345764e-13
6.66896771826e-13
3.50358599113e-13
2.01224515948e-13
4.55796613697e-13
1.78875673205e-13
5.40628342857e-13
1.67470740132e-13
4.34876360515e-13
3.37439499251e-13
8.36991093057e-14
5.89965153275e-13
4.5383731052e-13
4.85361890465e-13
1.5089738534e-13
3.79500272107e-13
2.61101844003e-13
6.20524359269e-14
1.08721735792e-13
2.15024356132e-13
7.05800918762e-14
2.6030367382e-13
3.87360728768e-13
1.18229663614e-13
4.9209508815e-13
1.96122965406e-13
5.59842851156e-13
1.35238517408e-13
8.22378595794e-14
3.90442259747e-13
6.76753337762e-13
1.02420706631e-13
2.81815681751e-13
4.65650172589e-13
4.03109795428e-13
2.3328966655e-13
3.26173779807e-13
2.06876714893e-13
5.67461480239e-13
2.1646037985e-13
5.19061990812e-13
4.44446145357e-13
6.82759243783e-13
3.26296530147e-13
2.91930083226e-13
3.21681565432e-13
4.9385936445e-13
4.73037150694e-13
4.26336573688e-13
3.94048127924e-13
2.21133069641e-13
3.00967100814e-13
2.52357663564e-13
2.10903523452e-13
9.33037312847e-14
2.20090815136e-13
2.48381605117e-13
5.04149549426e-13
4.86638500145e-13
4.62496755703e-13
4.7152670058e-13
3.51799265799e-13
5.15349482523e-13
5.58430993515e-13
3.0627571281e-13
5.361523499e-13
5.14033335336e-13
4.22161892703e-13
6.39475222734e-13
5.39257177919e-13
4.26547989479e-13
2.39683118549e-13
1.7871577842e-13
5.00707214654e-13
2.69777370224e-13
5.15298807488e-13
2.92699042453e-13
4.96575115038e-13
2.16120852966e-13
5.05022613659e-13
3.13363542608e-13
3.89084881936e-13
1.02535046995e-13