FoamFile
{
    version     2.0;
    format      ascii;
    class       volScalarField;
    object      U;
}
// * * * * * * * * * * * * * * * * * * * * * * * * * * * * * * * * * * * * * //

dimensions      [0 1 -1 0 0 0 0];

internalField   uniform 0.009900990099009901;

boundaryField
{
	oneCell
	{
		type zeroGradient;
	}
	
	
}
